Circuit: * D:\CMM\LTSpice_Tutorials\DifferentialAmplifier\Unbalanced_Differential_to_single_Amplifier.asc

WARNING: Node VOUT is floating.

WARNING: Less than two connections to node VOUT.  This node is used by C2.
Instance "m2": Length shorter than recommended for a level 1 MOSFET.
Instance "m1": Length shorter than recommended for a level 1 MOSFET.
Direct Newton iteration failed to find .op point.  (Use ".option noopiter" to skip.)
Starting Gmin stepping
Gmin = 10
Gmin = 1.07374
Gmin = 0.115292
Gmin = 0.0123794
Gmin = 0.00132923
Gmin = 0.000142725
Gmin = 1.5325e-005
Gmin = 1.6455e-006
Gmin = 1.76685e-007
Gmin = 1.89714e-008
Gmin = 2.03704e-009
Gmin = 2.18725e-010
Gmin = 2.34854e-011
Gmin = 2.52173e-012
Gmin = 2.70769e-013
Gmin = 0
Gmin stepping succeeded in finding the operating point.


Date: Sat Mar 06 19:18:56 2021
Total elapsed time: 0.108 seconds.

tnom = 27
temp = 27
method = modified trap
totiter = 9907
traniter = 9526
tranpoints = 4010
accept = 2479
rejected = 1531
matrix size = 10
fillins = 0
solver = Normal
Matrix Compiler1:      27 opcodes  0.1/[0.1]/0.5
Matrix Compiler2: 782 bytes object code size  0.1/0.1/[0.1]

