Circuit: * D:\CMM\LTSpice_Tutorials\CS_Amplifier_ResistiveLoad\CS_amplifier.asc

WARNING: Node VOUT is floating.

WARNING: Less than two connections to node VOUT.  This node is used by C1.
Instance "m1": Length shorter than recommended for a level 1 MOSFET.
Instance "m1": Width narrower than recommended for a level 1 MOSFET.
Direct Newton iteration for .op point succeeded.
.step w=1e-006
.step w=2.1e-005
.step w=4.1e-005
.step w=6.1e-005
.step w=8.1e-005
.step w=0.0001

Date: Sat Mar 06 21:06:33 2021
Total elapsed time: 0.325 seconds.

tnom = 27
temp = 27
method = trap
totiter = 11
traniter = 0
tranpoints = 0
accept = 0
rejected = 0
matrix size = 6
fillins = 0
solver = Normal
Matrix Compiler1:      10 opcodes
Matrix Compiler2: 374 bytes object code size
